/*--------------------------------*- C++ -*----------------------------------*\
| =========                 |                                                 |
| \      /  F ield         | OpenFOAM: The Open Source CFD Toolbox           |
|  \    /   O peration     | Version:  2.3.0                                 |
|   \  /    A nd           | Web:      www.OpenFOAM.org                      |
|    \/     M anipulation  |                                                 |
\*---------------------------------------------------------------------------*/
FoamFile
{
    version     2.0;
    format      ascii;
    class       dictionary;
    object      blockMeshDict;
}
// * * * * * * * * * * * * * * * * * * * * * * * * * * * * * * * * * * * * * //


convertToMeter = 1;

vertices
(
(        0.0050000000          0.0000000000          0.0000000000)
(        0.0048296291         -0.0012940952          0.0000000000)
(        0.0043301270         -0.0025000000          0.0000000000)
(        0.0035355339         -0.0035355339          0.0000000000)
(        0.0025000000         -0.0043301270          0.0000000000)
(        0.0012940952         -0.0048296291          0.0000000000)
(        0.0000000000         -0.0050000000          0.0000000000)
(       -0.0012940952         -0.0048296291          0.0000000000)
(       -0.0025000000         -0.0043301270          0.0000000000)
(       -0.0035355339         -0.0035355339          0.0000000000)
(       -0.0043301270         -0.0025000000          0.0000000000)
(       -0.0048296291         -0.0012940952          0.0000000000)
(       -0.0050000000         -0.0000000000          0.0000000000)
(       -0.0048296291          0.0012940952          0.0000000000)
(       -0.0043301270          0.0025000000          0.0000000000)
(       -0.0035355339          0.0035355339          0.0000000000)
(       -0.0025000000          0.0043301270          0.0000000000)
(       -0.0012940952          0.0048296291          0.0000000000)
(       -0.0000000000          0.0050000000          0.0000000000)
(        0.0012940952          0.0048296291          0.0000000000)
(        0.0025000000          0.0043301270          0.0000000000)
(        0.0035355339          0.0035355339          0.0000000000)
(        0.0043301270          0.0025000000          0.0000000000)
(        0.0048296291          0.0012940952          0.0000000000)
(        0.0100000000          0.0000000000          0.0000000000)
(        0.0096592583         -0.0025881905          0.0000000000)
(        0.0086602540         -0.0050000000          0.0000000000)
(        0.0070710678         -0.0070710678          0.0000000000)
(        0.0050000000         -0.0086602540          0.0000000000)
(        0.0025881905         -0.0096592583          0.0000000000)
(        0.0000000000         -0.0100000000          0.0000000000)
(       -0.0025881905         -0.0096592583          0.0000000000)
(       -0.0050000000         -0.0086602540          0.0000000000)
(       -0.0070710678         -0.0070710678          0.0000000000)
(       -0.0086602540         -0.0050000000          0.0000000000)
(       -0.0096592583         -0.0025881905          0.0000000000)
(       -0.0100000000         -0.0000000000          0.0000000000)
(       -0.0096592583          0.0025881905          0.0000000000)
(       -0.0086602540          0.0050000000          0.0000000000)
(       -0.0070710678          0.0070710678          0.0000000000)
(       -0.0050000000          0.0086602540          0.0000000000)
(       -0.0025881905          0.0096592583          0.0000000000)
(       -0.0000000000          0.0100000000          0.0000000000)
(        0.0025881905          0.0096592583          0.0000000000)
(        0.0050000000          0.0086602540          0.0000000000)
(        0.0070710678          0.0070710678          0.0000000000)
(        0.0086602540          0.0050000000          0.0000000000)
(        0.0096592583          0.0025881905          0.0000000000)
(        0.0350000000          0.0000000000          0.0000000000)
(        0.0338074039         -0.0090586666          0.0000000000)
(        0.0303108891         -0.0175000000          0.0000000000)
(        0.0247487373         -0.0247487373          0.0000000000)
(        0.0175000000         -0.0303108891          0.0000000000)
(        0.0090586666         -0.0338074039          0.0000000000)
(        0.0000000000         -0.0350000000          0.0000000000)
(       -0.0090586666         -0.0338074039          0.0000000000)
(       -0.0175000000         -0.0303108891          0.0000000000)
(       -0.0247487373         -0.0247487373          0.0000000000)
(       -0.0303108891         -0.0175000000          0.0000000000)
(       -0.0338074039         -0.0090586666          0.0000000000)
(       -0.0350000000         -0.0000000000          0.0000000000)
(       -0.0338074039          0.0090586666          0.0000000000)
(       -0.0303108891          0.0175000000          0.0000000000)
(       -0.0247487373          0.0247487373          0.0000000000)
(       -0.0175000000          0.0303108891          0.0000000000)
(       -0.0090586666          0.0338074039          0.0000000000)
(       -0.0000000000          0.0350000000          0.0000000000)
(        0.0090586666          0.0338074039          0.0000000000)
(        0.0175000000          0.0303108891          0.0000000000)
(        0.0247487373          0.0247487373          0.0000000000)
(        0.0303108891          0.0175000000          0.0000000000)
(        0.0338074039          0.0090586666          0.0000000000)
(        0.0615000000          0.0000000000          0.0000000000)
(        0.0594044383         -0.0159173713          0.0000000000)
(        0.0532605623         -0.0307500000          0.0000000000)
(        0.0434870670         -0.0434870670          0.0000000000)
(        0.0307500000         -0.0532605623          0.0000000000)
(        0.0159173713         -0.0594044383          0.0000000000)
(        0.0000000000         -0.0615000000          0.0000000000)
(       -0.0159173713         -0.0594044383          0.0000000000)
(       -0.0307500000         -0.0532605623          0.0000000000)
(       -0.0434870670         -0.0434870670          0.0000000000)
(       -0.0532605623         -0.0307500000          0.0000000000)
(       -0.0594044383         -0.0159173713          0.0000000000)
(       -0.0615000000         -0.0000000000          0.0000000000)
(       -0.0594044383          0.0159173713          0.0000000000)
(       -0.0532605623          0.0307500000          0.0000000000)
(       -0.0434870670          0.0434870670          0.0000000000)
(       -0.0307500000          0.0532605623          0.0000000000)
(       -0.0159173713          0.0594044383          0.0000000000)
(       -0.0000000000          0.0615000000          0.0000000000)
(        0.0159173713          0.0594044383          0.0000000000)
(        0.0307500000          0.0532605623          0.0000000000)
(        0.0434870670          0.0434870670          0.0000000000)
(        0.0532605623          0.0307500000          0.0000000000)
(        0.0594044383          0.0159173713          0.0000000000)
(        0.0050000000          0.0000000000          0.0400000000)
(        0.0048296291         -0.0012940952          0.0400000000)
(        0.0043301270         -0.0025000000          0.0400000000)
(        0.0035355339         -0.0035355339          0.0400000000)
(        0.0025000000         -0.0043301270          0.0400000000)
(        0.0012940952         -0.0048296291          0.0400000000)
(        0.0000000000         -0.0050000000          0.0400000000)
(       -0.0012940952         -0.0048296291          0.0400000000)
(       -0.0025000000         -0.0043301270          0.0400000000)
(       -0.0035355339         -0.0035355339          0.0400000000)
(       -0.0043301270         -0.0025000000          0.0400000000)
(       -0.0048296291         -0.0012940952          0.0400000000)
(       -0.0050000000         -0.0000000000          0.0400000000)
(       -0.0048296291          0.0012940952          0.0400000000)
(       -0.0043301270          0.0025000000          0.0400000000)
(       -0.0035355339          0.0035355339          0.0400000000)
(       -0.0025000000          0.0043301270          0.0400000000)
(       -0.0012940952          0.0048296291          0.0400000000)
(       -0.0000000000          0.0050000000          0.0400000000)
(        0.0012940952          0.0048296291          0.0400000000)
(        0.0025000000          0.0043301270          0.0400000000)
(        0.0035355339          0.0035355339          0.0400000000)
(        0.0043301270          0.0025000000          0.0400000000)
(        0.0048296291          0.0012940952          0.0400000000)
(        0.0100000000          0.0000000000          0.0400000000)
(        0.0096592583         -0.0025881905          0.0400000000)
(        0.0086602540         -0.0050000000          0.0400000000)
(        0.0070710678         -0.0070710678          0.0400000000)
(        0.0050000000         -0.0086602540          0.0400000000)
(        0.0025881905         -0.0096592583          0.0400000000)
(        0.0000000000         -0.0100000000          0.0400000000)
(       -0.0025881905         -0.0096592583          0.0400000000)
(       -0.0050000000         -0.0086602540          0.0400000000)
(       -0.0070710678         -0.0070710678          0.0400000000)
(       -0.0086602540         -0.0050000000          0.0400000000)
(       -0.0096592583         -0.0025881905          0.0400000000)
(       -0.0100000000         -0.0000000000          0.0400000000)
(       -0.0096592583          0.0025881905          0.0400000000)
(       -0.0086602540          0.0050000000          0.0400000000)
(       -0.0070710678          0.0070710678          0.0400000000)
(       -0.0050000000          0.0086602540          0.0400000000)
(       -0.0025881905          0.0096592583          0.0400000000)
(       -0.0000000000          0.0100000000          0.0400000000)
(        0.0025881905          0.0096592583          0.0400000000)
(        0.0050000000          0.0086602540          0.0400000000)
(        0.0070710678          0.0070710678          0.0400000000)
(        0.0086602540          0.0050000000          0.0400000000)
(        0.0096592583          0.0025881905          0.0400000000)
(        0.0350000000          0.0000000000          0.0400000000)
(        0.0338074039         -0.0090586666          0.0400000000)
(        0.0303108891         -0.0175000000          0.0400000000)
(        0.0247487373         -0.0247487373          0.0400000000)
(        0.0175000000         -0.0303108891          0.0400000000)
(        0.0090586666         -0.0338074039          0.0400000000)
(        0.0000000000         -0.0350000000          0.0400000000)
(       -0.0090586666         -0.0338074039          0.0400000000)
(       -0.0175000000         -0.0303108891          0.0400000000)
(       -0.0247487373         -0.0247487373          0.0400000000)
(       -0.0303108891         -0.0175000000          0.0400000000)
(       -0.0338074039         -0.0090586666          0.0400000000)
(       -0.0350000000         -0.0000000000          0.0400000000)
(       -0.0338074039          0.0090586666          0.0400000000)
(       -0.0303108891          0.0175000000          0.0400000000)
(       -0.0247487373          0.0247487373          0.0400000000)
(       -0.0175000000          0.0303108891          0.0400000000)
(       -0.0090586666          0.0338074039          0.0400000000)
(       -0.0000000000          0.0350000000          0.0400000000)
(        0.0090586666          0.0338074039          0.0400000000)
(        0.0175000000          0.0303108891          0.0400000000)
(        0.0247487373          0.0247487373          0.0400000000)
(        0.0303108891          0.0175000000          0.0400000000)
(        0.0338074039          0.0090586666          0.0400000000)
(        0.0615000000          0.0000000000          0.0400000000)
(        0.0594044383         -0.0159173713          0.0400000000)
(        0.0532605623         -0.0307500000          0.0400000000)
(        0.0434870670         -0.0434870670          0.0400000000)
(        0.0307500000         -0.0532605623          0.0400000000)
(        0.0159173713         -0.0594044383          0.0400000000)
(        0.0000000000         -0.0615000000          0.0400000000)
(       -0.0159173713         -0.0594044383          0.0400000000)
(       -0.0307500000         -0.0532605623          0.0400000000)
(       -0.0434870670         -0.0434870670          0.0400000000)
(       -0.0532605623         -0.0307500000          0.0400000000)
(       -0.0594044383         -0.0159173713          0.0400000000)
(       -0.0615000000         -0.0000000000          0.0400000000)
(       -0.0594044383          0.0159173713          0.0400000000)
(       -0.0532605623          0.0307500000          0.0400000000)
(       -0.0434870670          0.0434870670          0.0400000000)
(       -0.0307500000          0.0532605623          0.0400000000)
(       -0.0159173713          0.0594044383          0.0400000000)
(       -0.0000000000          0.0615000000          0.0400000000)
(        0.0159173713          0.0594044383          0.0400000000)
(        0.0307500000          0.0532605623          0.0400000000)
(        0.0434870670          0.0434870670          0.0400000000)
(        0.0532605623          0.0307500000          0.0400000000)
(        0.0594044383          0.0159173713          0.0400000000)
(        0.0050000000          0.0000000000          0.0600000000)
(        0.0048296291         -0.0012940952          0.0600000000)
(        0.0043301270         -0.0025000000          0.0600000000)
(        0.0035355339         -0.0035355339          0.0600000000)
(        0.0025000000         -0.0043301270          0.0600000000)
(        0.0012940952         -0.0048296291          0.0600000000)
(        0.0000000000         -0.0050000000          0.0600000000)
(       -0.0012940952         -0.0048296291          0.0600000000)
(       -0.0025000000         -0.0043301270          0.0600000000)
(       -0.0035355339         -0.0035355339          0.0600000000)
(       -0.0043301270         -0.0025000000          0.0600000000)
(       -0.0048296291         -0.0012940952          0.0600000000)
(       -0.0050000000         -0.0000000000          0.0600000000)
(       -0.0048296291          0.0012940952          0.0600000000)
(       -0.0043301270          0.0025000000          0.0600000000)
(       -0.0035355339          0.0035355339          0.0600000000)
(       -0.0025000000          0.0043301270          0.0600000000)
(       -0.0012940952          0.0048296291          0.0600000000)
(       -0.0000000000          0.0050000000          0.0600000000)
(        0.0012940952          0.0048296291          0.0600000000)
(        0.0025000000          0.0043301270          0.0600000000)
(        0.0035355339          0.0035355339          0.0600000000)
(        0.0043301270          0.0025000000          0.0600000000)
(        0.0048296291          0.0012940952          0.0600000000)
(        0.0100000000          0.0000000000          0.0600000000)
(        0.0096592583         -0.0025881905          0.0600000000)
(        0.0086602540         -0.0050000000          0.0600000000)
(        0.0070710678         -0.0070710678          0.0600000000)
(        0.0050000000         -0.0086602540          0.0600000000)
(        0.0025881905         -0.0096592583          0.0600000000)
(        0.0000000000         -0.0100000000          0.0600000000)
(       -0.0025881905         -0.0096592583          0.0600000000)
(       -0.0050000000         -0.0086602540          0.0600000000)
(       -0.0070710678         -0.0070710678          0.0600000000)
(       -0.0086602540         -0.0050000000          0.0600000000)
(       -0.0096592583         -0.0025881905          0.0600000000)
(       -0.0100000000         -0.0000000000          0.0600000000)
(       -0.0096592583          0.0025881905          0.0600000000)
(       -0.0086602540          0.0050000000          0.0600000000)
(       -0.0070710678          0.0070710678          0.0600000000)
(       -0.0050000000          0.0086602540          0.0600000000)
(       -0.0025881905          0.0096592583          0.0600000000)
(       -0.0000000000          0.0100000000          0.0600000000)
(        0.0025881905          0.0096592583          0.0600000000)
(        0.0050000000          0.0086602540          0.0600000000)
(        0.0070710678          0.0070710678          0.0600000000)
(        0.0086602540          0.0050000000          0.0600000000)
(        0.0096592583          0.0025881905          0.0600000000)
(        0.0350000000          0.0000000000          0.0600000000)
(        0.0338074039         -0.0090586666          0.0600000000)
(        0.0303108891         -0.0175000000          0.0600000000)
(        0.0247487373         -0.0247487373          0.0600000000)
(        0.0175000000         -0.0303108891          0.0600000000)
(        0.0090586666         -0.0338074039          0.0600000000)
(        0.0000000000         -0.0350000000          0.0600000000)
(       -0.0090586666         -0.0338074039          0.0600000000)
(       -0.0175000000         -0.0303108891          0.0600000000)
(       -0.0247487373         -0.0247487373          0.0600000000)
(       -0.0303108891         -0.0175000000          0.0600000000)
(       -0.0338074039         -0.0090586666          0.0600000000)
(       -0.0350000000         -0.0000000000          0.0600000000)
(       -0.0338074039          0.0090586666          0.0600000000)
(       -0.0303108891          0.0175000000          0.0600000000)
(       -0.0247487373          0.0247487373          0.0600000000)
(       -0.0175000000          0.0303108891          0.0600000000)
(       -0.0090586666          0.0338074039          0.0600000000)
(       -0.0000000000          0.0350000000          0.0600000000)
(        0.0090586666          0.0338074039          0.0600000000)
(        0.0175000000          0.0303108891          0.0600000000)
(        0.0247487373          0.0247487373          0.0600000000)
(        0.0303108891          0.0175000000          0.0600000000)
(        0.0338074039          0.0090586666          0.0600000000)
(        0.0615000000          0.0000000000          0.0600000000)
(        0.0594044383         -0.0159173713          0.0600000000)
(        0.0532605623         -0.0307500000          0.0600000000)
(        0.0434870670         -0.0434870670          0.0600000000)
(        0.0307500000         -0.0532605623          0.0600000000)
(        0.0159173713         -0.0594044383          0.0600000000)
(        0.0000000000         -0.0615000000          0.0600000000)
(       -0.0159173713         -0.0594044383          0.0600000000)
(       -0.0307500000         -0.0532605623          0.0600000000)
(       -0.0434870670         -0.0434870670          0.0600000000)
(       -0.0532605623         -0.0307500000          0.0600000000)
(       -0.0594044383         -0.0159173713          0.0600000000)
(       -0.0615000000         -0.0000000000          0.0600000000)
(       -0.0594044383          0.0159173713          0.0600000000)
(       -0.0532605623          0.0307500000          0.0600000000)
(       -0.0434870670          0.0434870670          0.0600000000)
(       -0.0307500000          0.0532605623          0.0600000000)
(       -0.0159173713          0.0594044383          0.0600000000)
(       -0.0000000000          0.0615000000          0.0600000000)
(        0.0159173713          0.0594044383          0.0600000000)
(        0.0307500000          0.0532605623          0.0600000000)
(        0.0434870670          0.0434870670          0.0600000000)
(        0.0532605623          0.0307500000          0.0600000000)
(        0.0594044383          0.0159173713          0.0600000000)
(        0.0017101007         -0.0046984631          0.0900000000)
(        0.0004357787         -0.0049809735          0.0900000000)
(       -0.0008682409         -0.0049240388          0.0900000000)
(       -0.0021130913         -0.0045315389          0.0900000000)
(       -0.0032139380         -0.0038302222          0.0900000000)
(       -0.0040957602         -0.0028678822          0.0900000000)
(       -0.0046984631         -0.0017101007          0.0900000000)
(       -0.0049809735         -0.0004357787          0.0900000000)
(       -0.0049240388          0.0008682409          0.0900000000)
(       -0.0045315389          0.0021130913          0.0900000000)
(       -0.0038302222          0.0032139380          0.0900000000)
(       -0.0028678822          0.0040957602          0.0900000000)
(       -0.0017101007          0.0046984631          0.0900000000)
(       -0.0004357787          0.0049809735          0.0900000000)
(        0.0008682409          0.0049240388          0.0900000000)
(        0.0021130913          0.0045315389          0.0900000000)
(        0.0032139380          0.0038302222          0.0900000000)
(        0.0040957602          0.0028678822          0.0900000000)
(        0.0046984631          0.0017101007          0.0900000000)
(        0.0049809735          0.0004357787          0.0900000000)
(        0.0049240388         -0.0008682409          0.0900000000)
(        0.0045315389         -0.0021130913          0.0900000000)
(        0.0038302222         -0.0032139380          0.0900000000)
(        0.0028678822         -0.0040957602          0.0900000000)
(        0.0034202014         -0.0093969262          0.0900000000)
(        0.0008715574         -0.0099619470          0.0900000000)
(       -0.0017364818         -0.0098480775          0.0900000000)
(       -0.0042261826         -0.0090630779          0.0900000000)
(       -0.0064278761         -0.0076604444          0.0900000000)
(       -0.0081915204         -0.0057357644          0.0900000000)
(       -0.0093969262         -0.0034202014          0.0900000000)
(       -0.0099619470         -0.0008715574          0.0900000000)
(       -0.0098480775          0.0017364818          0.0900000000)
(       -0.0090630779          0.0042261826          0.0900000000)
(       -0.0076604444          0.0064278761          0.0900000000)
(       -0.0057357644          0.0081915204          0.0900000000)
(       -0.0034202014          0.0093969262          0.0900000000)
(       -0.0008715574          0.0099619470          0.0900000000)
(        0.0017364818          0.0098480775          0.0900000000)
(        0.0042261826          0.0090630779          0.0900000000)
(        0.0064278761          0.0076604444          0.0900000000)
(        0.0081915204          0.0057357644          0.0900000000)
(        0.0093969262          0.0034202014          0.0900000000)
(        0.0099619470          0.0008715574          0.0900000000)
(        0.0098480775         -0.0017364818          0.0900000000)
(        0.0090630779         -0.0042261826          0.0900000000)
(        0.0076604444         -0.0064278761          0.0900000000)
(        0.0057357644         -0.0081915204          0.0900000000)
(        0.0119707050         -0.0328892417          0.0900000000)
(        0.0030504510         -0.0348668144          0.0900000000)
(       -0.0060776862         -0.0344682714          0.0900000000)
(       -0.0147916392         -0.0317207725          0.0900000000)
(       -0.0224975663         -0.0268115555          0.0900000000)
(       -0.0286703216         -0.0200751753          0.0900000000)
(       -0.0328892417         -0.0119707050          0.0900000000)
(       -0.0348668144         -0.0030504510          0.0900000000)
(       -0.0344682714          0.0060776862          0.0900000000)
(       -0.0317207725          0.0147916392          0.0900000000)
(       -0.0268115555          0.0224975663          0.0900000000)
(       -0.0200751753          0.0286703216          0.0900000000)
(       -0.0119707050          0.0328892417          0.0900000000)
(       -0.0030504510          0.0348668144          0.0900000000)
(        0.0060776862          0.0344682714          0.0900000000)
(        0.0147916392          0.0317207725          0.0900000000)
(        0.0224975663          0.0268115555          0.0900000000)
(        0.0286703216          0.0200751753          0.0900000000)
(        0.0328892417          0.0119707050          0.0900000000)
(        0.0348668144          0.0030504510          0.0900000000)
(        0.0344682714         -0.0060776862          0.0900000000)
(        0.0317207725         -0.0147916392          0.0900000000)
(        0.0268115555         -0.0224975663          0.0900000000)
(        0.0200751753         -0.0286703216          0.0900000000)
(        0.0210342388         -0.0577910962          0.0900000000)
(        0.0053600782         -0.0612659739          0.0900000000)
(       -0.0106793629         -0.0605656768          0.0900000000)
(       -0.0259910231         -0.0557379289          0.0900000000)
(       -0.0395314380         -0.0471117333          0.0900000000)
(       -0.0503778507         -0.0352749508          0.0900000000)
(       -0.0577910962         -0.0210342388          0.0900000000)
(       -0.0612659739         -0.0053600782          0.0900000000)
(       -0.0605656768          0.0106793629          0.0900000000)
(       -0.0557379289          0.0259910231          0.0900000000)
(       -0.0471117333          0.0395314380          0.0900000000)
(       -0.0352749508          0.0503778507          0.0900000000)
(       -0.0210342388          0.0577910962          0.0900000000)
(       -0.0053600782          0.0612659739          0.0900000000)
(        0.0106793629          0.0605656768          0.0900000000)
(        0.0259910231          0.0557379289          0.0900000000)
(        0.0395314380          0.0471117333          0.0900000000)
(        0.0503778507          0.0352749508          0.0900000000)
(        0.0577910962          0.0210342388          0.0900000000)
(        0.0612659739          0.0053600782          0.0900000000)
(        0.0605656768         -0.0106793629          0.0900000000)
(        0.0557379289         -0.0259910231          0.0900000000)
(        0.0471117333         -0.0395314380          0.0900000000)
(        0.0352749508         -0.0503778507          0.0900000000)
(        0.0017101007         -0.0046984631          0.1050000000)
(        0.0004357787         -0.0049809735          0.1050000000)
(       -0.0008682409         -0.0049240388          0.1050000000)
(       -0.0021130913         -0.0045315389          0.1050000000)
(       -0.0032139380         -0.0038302222          0.1050000000)
(       -0.0040957602         -0.0028678822          0.1050000000)
(       -0.0046984631         -0.0017101007          0.1050000000)
(       -0.0049809735         -0.0004357787          0.1050000000)
(       -0.0049240388          0.0008682409          0.1050000000)
(       -0.0045315389          0.0021130913          0.1050000000)
(       -0.0038302222          0.0032139380          0.1050000000)
(       -0.0028678822          0.0040957602          0.1050000000)
(       -0.0017101007          0.0046984631          0.1050000000)
(       -0.0004357787          0.0049809735          0.1050000000)
(        0.0008682409          0.0049240388          0.1050000000)
(        0.0021130913          0.0045315389          0.1050000000)
(        0.0032139380          0.0038302222          0.1050000000)
(        0.0040957602          0.0028678822          0.1050000000)
(        0.0046984631          0.0017101007          0.1050000000)
(        0.0049809735          0.0004357787          0.1050000000)
(        0.0049240388         -0.0008682409          0.1050000000)
(        0.0045315389         -0.0021130913          0.1050000000)
(        0.0038302222         -0.0032139380          0.1050000000)
(        0.0028678822         -0.0040957602          0.1050000000)
(        0.0034202014         -0.0093969262          0.1050000000)
(        0.0008715574         -0.0099619470          0.1050000000)
(       -0.0017364818         -0.0098480775          0.1050000000)
(       -0.0042261826         -0.0090630779          0.1050000000)
(       -0.0064278761         -0.0076604444          0.1050000000)
(       -0.0081915204         -0.0057357644          0.1050000000)
(       -0.0093969262         -0.0034202014          0.1050000000)
(       -0.0099619470         -0.0008715574          0.1050000000)
(       -0.0098480775          0.0017364818          0.1050000000)
(       -0.0090630779          0.0042261826          0.1050000000)
(       -0.0076604444          0.0064278761          0.1050000000)
(       -0.0057357644          0.0081915204          0.1050000000)
(       -0.0034202014          0.0093969262          0.1050000000)
(       -0.0008715574          0.0099619470          0.1050000000)
(        0.0017364818          0.0098480775          0.1050000000)
(        0.0042261826          0.0090630779          0.1050000000)
(        0.0064278761          0.0076604444          0.1050000000)
(        0.0081915204          0.0057357644          0.1050000000)
(        0.0093969262          0.0034202014          0.1050000000)
(        0.0099619470          0.0008715574          0.1050000000)
(        0.0098480775         -0.0017364818          0.1050000000)
(        0.0090630779         -0.0042261826          0.1050000000)
(        0.0076604444         -0.0064278761          0.1050000000)
(        0.0057357644         -0.0081915204          0.1050000000)
(        0.0119707050         -0.0328892417          0.1050000000)
(        0.0030504510         -0.0348668144          0.1050000000)
(       -0.0060776862         -0.0344682714          0.1050000000)
(       -0.0147916392         -0.0317207725          0.1050000000)